/*--------------------------------*- C++ -*----------------------------------*\
  =========                 |
  \\      /  F ield         | OpenFOAM: The Open Source CFD Toolbox
   \\    /   O peration     | Website:  https://openfoam.org
    \\  /    A nd           | Version:  9
     \\/     M anipulation  |
\*---------------------------------------------------------------------------*/
FoamFile
{
    version     2.0;
    format      ascii;
    class       dictionary;
    object      controlDict;
}
// * * * * * * * * * * * * * * * * * * * * * * * * * * * * * * * * * * * * * //
libs
(
  "libdynamicMesh2D.so"
  "libdynamicFvMesh2D.so"
);

application     detonationFoam_V2.0;

startFrom       startTime;
startTime       0;
stopAt          endTime;
endTime         1e-05;

deltaT          1e-11;

writeControl    adjustableRunTime;
writeInterval   5e-07;
purgeWrite      0;
writeFormat     ascii;
writePrecision  12;
writeCompression off;
timeFormat      general;
timePrecision   12;
runTimeModifiable true;
adjustTimeStep  yes;
useAcousticCourant yes;
maxCo           0.1;
maxDeltaT       1e-6;
maxAcousticCo   0.1;

functions {}

// ************************************************************************* //
