/*--------------------------------*- C++ -*----------------------------------*\
| =========                 |                                                 |
| \\      /  F ield         | DLBFoam: Dynamic Load Balancing                 |
|  \\    /   O peration     | for fast reactive simulations                   |
|   \\  /    A nd           |                                                 |
|    \\/     M anipulation  | 2020, Aalto University, Finland                 |
\*---------------------------------------------------------------------------*/
FoamFile
{
    version         2;
    format          ascii;
    class           dictionary;
    location        "constant";
    object          chemistryProperties;
}
// * * * * * * * * * * * * * * * * * * * * * * * * * * * * * * * * * * * * * //

refmapping
{
}

loadbalancing
{
	active	true;
	log	false;
}

chemistry       on;

initialChemicalTimeStep 1;

chemistryType
{
    solver          ode;
    method          loadBalanced;
}

odeCoeffs
{
    solver          seulex;
    absTol          1e-06;
    relTol          1e-03;
}

#include "$FOAM_CASE/constant/foam/reactions.foam"

differentialDiffusion on;
thermalDiffusion off;

Prt  Prt [0 0 0 0 0] 0.7;
Sct  Sct [0 0 0 0 0] 0.7;
