/*--------------------------------*- C++ -*----------------------------------*\
  =========                 |
  \\      /  F ield         | OpenFOAM: The Open Source CFD Toolbox
   \\    /   O peration     | Website:  https://openfoam.org
    \\  /    A nd           | Version:  8
     \\/     M anipulation  |
\*---------------------------------------------------------------------------*/
FoamFile
{
    version     2.0;
    format      ascii;
    class       polyBoundaryMesh;
    location    "constant/polyMesh";
    object      boundary;
}
// * * * * * * * * * * * * * * * * * * * * * * * * * * * * * * * * * * * * * //

5
(
    inlet
    {
        type            wall;
        inGroups        List<word> 1(wall);
        nFaces          1;
        startFace       19999;
    }
    outlet
    {
        type            wall;
        inGroups        List<word> 1(wall);
        nFaces          1;
        startFace       20000;
    }
    bottom
    {
        type            wall;
        inGroups        List<word> 1(wall);
        nFaces          20000;
        startFace       20001;
    }
    top
    {
        type            wall;
        inGroups        List<word> 1(wall);
        nFaces          20000;
        startFace       40001;
    }
    frontAndBack
    {
        type            empty;
        inGroups        List<word> 1(empty);
        nFaces          40000;
        startFace       60001;
    }
)

// ************************************************************************* //
